<configuration xmlns:xsi="http://www.w3.org/2001/XMLSchema-instance" xsi:noNamespaceSchemaLocation="http://sumo.dlr.de/xsd/sumoConfiguration.xsd">

    <input>
        <net-file value="erlangen.net.xml"/>
        <route-files value="erlangen.rou30.xml"/>
        <additional-files value="erlangen.poly.xml"/>
    </input>
    <processing>
       <collision.action value="none"/>
       <time-to-teleport value="30"/>
       <time-to-teleport.remove value="true"/>
    </processing>
    <time>
        <begin value="0"/>
        <end value="1000"/>
        <step-length value="0.1"/>
    </time>

    <report>
        <xml-validation value="never"/>
        <xml-validation.net value="never"/>
        <no-step-log value="true"/>
    </report>

    <gui_only>
        <start value="false"/>
    </gui_only>

</configuration>
